Version 4
SHEET 1 880 680
WIRE 144 -128 128 -128
WIRE 240 -128 224 -128
WIRE 320 -128 304 -128
WIRE 128 80 128 -128
WIRE 128 80 -128 80
WIRE 176 80 128 80
WIRE 320 80 320 -128
WIRE 320 80 272 80
WIRE 416 80 320 80
WIRE 528 80 416 80
WIRE 320 112 320 80
WIRE 416 112 416 80
WIRE 272 144 272 112
WIRE -128 176 -128 160
WIRE 128 176 128 80
WIRE 528 192 528 160
WIRE 128 272 128 256
WIRE 272 272 272 240
WIRE 272 272 128 272
WIRE 320 272 320 176
WIRE 320 272 272 272
WIRE 416 272 416 192
WIRE 416 272 320 272
FLAG -128 176 0
FLAG 528 192 0
SYMBOL voltage -128 64 R0
WINDOW 123 0 0 Left 2
WINDOW 39 0 0 Left 2
SYMATTR InstName V1
SYMATTR Value SINE(0 311 60)
SYMBOL EXTRA\\ST\\TRIAC\\BTA41-600B 224 80 R270
SYMATTR InstName U1
SYMBOL res 240 -144 R90
WINDOW 0 0 56 VBottom 2
WINDOW 3 32 56 VTop 2
SYMATTR InstName R1
SYMATTR Value 2.7k
SYMBOL cap 304 -144 R90
WINDOW 0 0 32 VBottom 2
WINDOW 3 32 32 VTop 2
SYMATTR InstName C1
SYMATTR Value 22n
SYMBOL res 512 64 R0
SYMATTR InstName R2
SYMATTR Value 100
SYMBOL cap 304 112 R0
SYMATTR InstName C3
SYMATTR Value 100n
SYMBOL res 144 272 R180
WINDOW 0 36 76 Left 2
WINDOW 3 36 40 Left 2
SYMATTR InstName R5
SYMATTR Value 100k
SYMBOL ValVol\\ST\\thyristors_st\\diac\\DB3 272 192 R180
WINDOW 0 9 31 Left 2
WINDOW 3 8 -32 Left 2
SYMATTR InstName U2
SYMBOL res 400 96 R0
SYMATTR InstName R3
SYMATTR Value 1000k
TEXT 0 344 Left 2 !.tran 0 33.4m 16.67m startup
